four_bus_gfm.raw
0,100.0,33,0,0,60.0 / REGFMA_COMP
RED 230 kV - LINEA - T1 - T2 - GFM 5 MW
BASE 100 MVA 60 Hz
1,'RED_230',230,3,1,1,1,1.0,0.0,1
2,'POI_230',230,1,1,1,1,1.0,0.0,1
3,'MT_34_5',34.5,1,1,1,1,1.0,0.0,1
4,'INV_0_69',0.69,2,1,1,1,1.0,0.0,1
0 / BUS END, LOAD BEGIN
0 / LOAD END, FIXED SHUNT BEGIN
0 / FIXED SHUNT END, GENERATOR BEGIN
1,'1',0,0,999,-999,1.0,0,100,0,0.01,0,0,1,1,100,999,-999,1,1.0
4,'1',5.0,0,3,-3,1.0,0,5.0,0,0.15,0,0,1,1,100,5,0,1,1.0
0 / GENERATOR END, BRANCH BEGIN
1,2,'1',0.000945179584120983,0.007561436672967864,0,100,100,100,0,0,0,0,1,1,10,1,1.0
0 / BRANCH END, TRANSFORMER BEGIN
2,3,0,'1',1,2,1,0,0,2,'T1',1,1,1.0
0.005,0.0998749217771909,10.0
1.0,230,0,10.0,10.0,10.0,0,0,1.1,0.9,1.1,0.9,33,0,0,0
1.0,34.5
3,4,0,'1',1,2,1,0,0,2,'T2',1,1,1.0
0.01,0.05916079783099616,6.25
1.0,34.5,0,6.25,6.25,6.25,0,0,1.1,0.9,1.1,0.9,33,0,0,0
1.0,0.69
0 / END TRANSFORMER
0 / END AREA
0 / END TWO-TERMINAL DC
0 / END VSC DC
0 / END IMPEDANCE CORRECTION
0 / END MULTI-TERMINAL DC
0 / END MULTI-SECTION LINE
0 / END ZONE
0 / END INTER-AREA TRANSFER
0 / END OWNER
0 / END FACTS
0 / END SWITCHED SHUNT
0 / END GNE
0 / END INDUCTION MACHINE
Q
